@<TRIPOS>MOLECULE
2_4_dinitrophenol
17 17
SMALL
USER_CHARGES
****
Charges calculated by ChargeFW2 0.1, method: sqeqp
@<TRIPOS>ATOM
    1 O        -2.432   -1.753    0.001 O       0 UNL -0.645
    2 O        -1.941    2.296    0.001 O       0 UNL -0.291
    3 O        -3.288    0.562    0.000 O       0 UNL -0.305
    4 O         3.680   -0.339    0.002 O       0 UNL -0.278
    5 O         2.827    1.684   -0.000 O       0 UNL -0.337
    6 N        -2.136    1.057    0.000 N       0 UNL  0.441
    7 N         2.693    0.437    0.000 N       0 UNL  0.434
    8 C        -1.013    0.184   -0.001 C       0 UNL -0.036
    9 C         1.385   -0.115   -0.001 C       0 UNL  0.030
   10 C         0.272    0.727   -0.001 C       0 UNL -0.120
   11 C        -1.186   -1.200   -0.000 C       0 UNL  0.329
   12 C         1.212   -1.499   -0.001 C       0 UNL -0.144
   13 C        -0.074   -2.041   -0.000 C       0 UNL -0.239
   14 H         0.410    1.806   -0.001 H       0 UNL  0.236
   15 H         2.055   -2.185   -0.000 H       0 UNL  0.226
   16 H        -0.194   -3.122    0.000 H       0 UNL  0.223
   17 H        -2.349   -2.722    0.001 H       0 UNL  0.475
@<TRIPOS>BOND
    1     1    11  1
    2     1    17  1
    3     2     6  1
    4     3     6  2
    5     4     7  1
    6     5     7  2
    7     6     8  1
    8     7     9  1
    9     8    10  1
   10     8    11  2
   11     9    10  2
   12     9    12  1
   13    10    14  1
   14    11    13  1
   15    12    13  2
   16    12    15  1
   17    13    16  1
@<TRIPOS>MOLECULE
4_nitrophenol
15 15
SMALL
USER_CHARGES
****
Charges calculated by ChargeFW2 0.1, method: sqeqp
@<TRIPOS>ATOM
    1 O         3.446   -0.000    0.000 O       0 UNL -0.684
    2 O        -2.733    1.097    0.001 O       0 UNL -0.295
    3 O        -2.732   -1.098   -0.000 O       0 UNL -0.361
    4 N        -2.124    0.000    0.000 N       0 UNL  0.446
    5 C        -0.704    0.001   -0.001 C       0 UNL  0.019
    6 C        -0.007    1.208   -0.001 C       0 UNL -0.121
    7 C        -0.007   -1.208   -0.000 C       0 UNL -0.173
    8 C         2.085   -0.000    0.000 C       0 UNL  0.317
    9 C         1.388    1.208   -0.000 C       0 UNL -0.276
   10 C         1.387   -1.208    0.000 C       0 UNL -0.209
   11 H        -0.516    2.168   -0.001 H       0 UNL  0.218
   12 H        -0.517   -2.167    0.000 H       0 UNL  0.218
   13 H         1.920    2.155   -0.000 H       0 UNL  0.213
   14 H         1.925   -2.152    0.001 H       0 UNL  0.220
   15 H         3.762    0.920    0.000 H       0 UNL  0.468
@<TRIPOS>BOND
    1     1     8  1
    2     1    15  1
    3     2     4  1
    4     3     4  2
    5     4     5  1
    6     5     6  2
    7     5     7  1
    8     6     9  1
    9     6    11  1
   10     7    10  2
   11     7    12  1
   12     8     9  2
   13     8    10  1
   14     9    13  1
   15    10    14  1
@<TRIPOS>MOLECULE
2_chlorophenol
13 13
SMALL
USER_CHARGES
****
Charges calculated by ChargeFW2 0.1, method: sqeqp
@<TRIPOS>ATOM
    1 Cl        2.268   -1.233    0.000 Cl      0 UNL  0.010
    2 O         1.504    1.675   -0.000 O       0 UNL -0.689
    3 C         0.460    0.799   -0.000 C       0 UNL  0.279
    4 C         0.671   -0.580    0.000 C       0 UNL -0.128
    5 C        -0.840    1.305    0.000 C       0 UNL -0.230
    6 C        -0.417   -1.452   -0.000 C       0 UNL -0.158
    7 C        -1.929    0.432    0.000 C       0 UNL -0.177
    8 C        -1.717   -0.946    0.000 C       0 UNL -0.198
    9 H        -1.012    2.378    0.000 H       0 UNL  0.213
   10 H        -0.269   -2.529   -0.000 H       0 UNL  0.206
   11 H        -2.941    0.827    0.000 H       0 UNL  0.204
   12 H        -2.564   -1.626    0.000 H       0 UNL  0.203
   13 H         2.331    1.163   -0.000 H       0 UNL  0.465
@<TRIPOS>BOND
    1     1     4  1
    2     2     3  1
    3     2    13  1
    4     3     4  1
    5     3     5  2
    6     4     6  2
    7     5     7  1
    8     5     9  1
    9     6     8  1
   10     6    10  1
   11     7     8  2
   12     7    11  1
   13     8    12  1
@<TRIPOS>MOLECULE
3_chlorophenol
13 13
SMALL
USER_CHARGES
****
Charges calculated by ChargeFW2 0.1, method: sqeqp
@<TRIPOS>ATOM
    1 Cl        2.748   -0.970    0.000 Cl      0 UNL  0.009
    2 O        -2.335   -1.205    0.000 O       0 UNL -0.694
    3 C        -1.216   -0.431   -0.000 C       0 UNL  0.310
    4 C         0.045   -1.028   -0.000 C       0 UNL -0.280
    5 C        -1.329    0.959    0.000 C       0 UNL -0.233
    6 C         1.192   -0.234   -0.000 C       0 UNL -0.040
    7 C        -0.182    1.753    0.000 C       0 UNL -0.170
    8 C         1.079    1.156    0.000 C       0 UNL -0.198
    9 H         0.132   -2.112   -0.000 H       0 UNL  0.209
   10 H        -2.309    1.430    0.000 H       0 UNL  0.213
   11 H        -0.271    2.835    0.001 H       0 UNL  0.204
   12 H         1.964    1.787    0.000 H       0 UNL  0.206
   13 H        -2.072   -2.141    0.000 H       0 UNL  0.464
@<TRIPOS>BOND
    1     1     6  1
    2     2     3  1
    3     2    13  1
    4     3     4  2
    5     3     5  1
    6     4     6  1
    7     4     9  1
    8     5     7  2
    9     5    10  1
   10     6     8  2
   11     7     8  1
   12     7    11  1
   13     8    12  1
@<TRIPOS>MOLECULE
m_cresol
16 16
SMALL
USER_CHARGES
****
Charges calculated by ChargeFW2 0.1, method: sqeqp
@<TRIPOS>ATOM
    1 O         2.368   -1.099    0.000 O       0 UNL -0.700
    2 C        -1.204   -0.308   -0.000 C       0 UNL  0.034
    3 C        -0.018   -1.042   -0.000 C       0 UNL -0.266
    4 C        -1.161    1.087    0.000 C       0 UNL -0.209
    5 C         1.211   -0.383   -0.000 C       0 UNL  0.312
    6 C        -2.518   -1.013    0.000 C       0 UNL -0.574
    7 C         0.068    1.746    0.000 C       0 UNL -0.179
    8 C         1.254    1.012   -0.000 C       0 UNL -0.283
    9 H        -0.045   -2.129    0.002 H       0 UNL  0.210
   10 H        -2.078    1.670    0.002 H       0 UNL  0.200
   11 H        -2.453   -1.968   -0.531 H       0 UNL  0.200
   12 H        -2.842   -1.203    1.028 H       0 UNL  0.200
   13 H        -3.287   -0.418   -0.505 H       0 UNL  0.197
   14 H         0.102    2.832    0.001 H       0 UNL  0.198
   15 H         2.205    1.538    0.000 H       0 UNL  0.202
   16 H         3.120   -0.483    0.000 H       0 UNL  0.458
@<TRIPOS>BOND
    1     1     5  1
    2     1    16  1
    3     2     3  2
    4     2     4  1
    5     2     6  1
    6     3     5  1
    7     3     9  1
    8     4     7  2
    9     4    10  1
   10     5     8  2
   11     6    11  1
   12     6    12  1
   13     6    13  1
   14     7     8  1
   15     7    14  1
   16     8    15  1
@<TRIPOS>MOLECULE
o_cresol
16 16
SMALL
USER_CHARGES
****
Charges calculated by ChargeFW2 0.1, method: sqeqp
@<TRIPOS>ATOM
    1 O         1.686   -1.503    0.000 O       0 UNL -0.692
    2 C         0.638    0.653   -0.000 C       0 UNL -0.021
    3 C         0.557   -0.739    0.000 C       0 UNL  0.290
    4 C        -0.527    1.420    0.000 C       0 UNL -0.202
    5 C         1.964    1.341    0.000 C       0 UNL -0.573
    6 C        -0.689   -1.365    0.000 C       0 UNL -0.277
    7 C        -1.774    0.793    0.000 C       0 UNL -0.192
    8 C        -1.855   -0.599    0.000 C       0 UNL -0.184
    9 H        -0.482    2.505    0.000 H       0 UNL  0.201
   10 H         2.535    1.065    0.893 H       0 UNL  0.204
   11 H         2.536    1.064   -0.892 H       0 UNL  0.204
   12 H         1.859    2.431   -0.001 H       0 UNL  0.187
   13 H        -0.767   -2.449    0.000 H       0 UNL  0.202
   14 H        -2.681    1.390    0.000 H       0 UNL  0.198
   15 H        -2.825   -1.087    0.000 H       0 UNL  0.198
   16 H         1.433   -2.442    0.000 H       0 UNL  0.457
@<TRIPOS>BOND
    1     1     3  1
    2     1    16  1
    3     2     3  1
    4     2     4  2
    5     2     5  1
    6     3     6  2
    7     4     7  1
    8     4     9  1
    9     5    10  1
   10     5    11  1
   11     5    12  1
   12     6     8  1
   13     6    13  1
   14     7     8  2
   15     7    14  1
   16     8    15  1
@<TRIPOS>MOLECULE
propofol
31 31
SMALL
USER_CHARGES
****
Charges calculated by ChargeFW2 0.1, method: sqeqp
@<TRIPOS>ATOM
    1 O        -0.001    1.978   -0.000 O       0 UNL -0.689
    2 C        -2.512    0.645    0.000 C       0 UNL -0.207
    3 C         2.512    0.645    0.000 C       0 UNL -0.211
    4 C        -1.208   -0.083   -0.001 C       0 UNL -0.038
    5 C         1.208   -0.083    0.001 C       0 UNL -0.010
    6 C        -0.000    0.614    0.000 C       0 UNL  0.232
    7 C        -1.208   -1.478   -0.000 C       0 UNL -0.191
    8 C         1.208   -1.478    0.000 C       0 UNL -0.203
    9 C        -3.346    0.353    1.261 C       0 UNL -0.563
   10 C        -3.347    0.354   -1.260 C       0 UNL -0.566
   11 C         3.346    0.354   -1.261 C       0 UNL -0.564
   12 C         3.347    0.354    1.260 C       0 UNL -0.563
   13 C         0.000   -2.175   -0.000 C       0 UNL -0.201
   14 H        -2.361    1.729    0.013 H       0 UNL  0.188
   15 H         2.337    1.728    0.000 H       0 UNL  0.203
   16 H        -2.135   -2.044   -0.001 H       0 UNL  0.203
   17 H         2.136   -2.043    0.000 H       0 UNL  0.204
   18 H        -3.658   -0.695    1.314 H       0 UNL  0.194
   19 H        -4.252    0.969    1.273 H       0 UNL  0.189
   20 H        -2.774    0.580    2.167 H       0 UNL  0.200
   21 H        -2.776    0.585   -2.166 H       0 UNL  0.193
   22 H        -4.254    0.968   -1.270 H       0 UNL  0.192
   23 H        -3.657   -0.695   -1.315 H       0 UNL  0.197
   24 H         3.661   -0.694   -1.313 H       0 UNL  0.192
   25 H         4.250    0.973   -1.274 H       0 UNL  0.190
   26 H         2.773    0.578   -2.167 H       0 UNL  0.194
   27 H         2.774    0.578    2.167 H       0 UNL  0.198
   28 H         4.251    0.973    1.273 H       0 UNL  0.189
   29 H         3.662   -0.694    1.312 H       0 UNL  0.191
   30 H         0.001   -3.262   -0.000 H       0 UNL  0.200
   31 H        -0.639    2.287   -0.665 H       0 UNL  0.460
@<TRIPOS>BOND
    1     1     6  1
    2     1    31  1
    3     2     4  1
    4     2     9  1
    5     2    10  1
    6     2    14  1
    7     3     5  1
    8     3    11  1
    9     3    12  1
   10     3    15  1
   11     4     6  2
   12     4     7  1
   13     5     6  1
   14     5     8  2
   15     7    13  2
   16     7    16  1
   17     8    13  1
   18     8    17  1
   19     9    18  1
   20     9    19  1
   21     9    20  1
   22    10    21  1
   23    10    22  1
   24    10    23  1
   25    11    24  1
   26    11    25  1
   27    11    26  1
   28    12    27  1
   29    12    28  1
   30    12    29  1
   31    13    30  1
